
Circuit: *

Doing analysis at TEMP = 27.000000 and TNOM = 27.000000


No. of Data Rows : 1
********************************************
Operating point
********************************************
op_TAB
@gb[i] = -2.29771e-04
@idd[current] = 1.005042e-03
@r1[i] = 2.191669e-04
@r2[i] = 2.297712e-04
@r3[i] = 1.060424e-05
@r4[i] = 1.185502e-03
@r5[i] = 1.234813e-03
@r6[i] = 9.663347e-04
@r7[i] = 9.663347e-04
v(1) = -9.73914e-01
v(3) = 1.063433e+01
v(4) = 6.382611e+00
v(5) = 6.843347e+00
v(6) = 7.067298e+00
v(7) = 1.953900e+00
v(8) = 6.875344e+00
v(9) = 0.000000e+00
hc#branch = 3.870689e-05
vaa#branch = -2.19167e-04
vnn#branch = 9.663347e-04
op_END
ngspice-31 done
